USER: ADFR SOLUTION from run 0
USER: SCORE 7.715936 LL:  -0.824 LR:  -6.960 RR:   0.000 FEB:  -4.872
USER: RMSD 0.534629
USER: STATUS Locally minimized using BFGS
USER: GENES 9
USER: genes 0 Translation |==|  0.53242 0.46498 0.54906
USER: genes 1 Rotation |==|  0.49790 0.47638 0.49543 0.99942
USER: genes 2 Torsion [N]-C--CA-[N] |==|  0.41041
USER: genes 3 Torsion [C]-CA--CB-[CG] |==|  0.46104
USER: genes 4 Torsion [CA]-CB--CG-[CD2] |==|  0.27710
USER: genes 5 Torsion [C]-N--CA-[C] |==|  0.27761
USER: genes 6 Torsion [N]-CA--C-[N] |==|  0.01111
USER: genes 7 Torsion [C]-N--CA-[C] |==|  0.73140
USER: genes 8 Torsion [N]-CA--C-[O] |==|  0.39418
ROOT
ATOM      1  C   PHE D 581      10.385  42.265  32.544  1.00 49.77 LIG 0.26  C 
ATOM      2 O    PHE D 581      11.470  42.236  33.110  1.00 40.61 LIG-0.27  OA
ATOM      3  N   GLY D 582       9.234  42.487  33.175  1.00 37.98 LIG-0.35  N 
ATOM      4 H    GLY D 582       8.467  42.466  32.786  1.00 37.98 LIG 0.16  HD
ENDROOT
BRANCH 1 5
ATOM      5  CA  PHE D 581      10.299  42.040  31.043  1.00 40.42 LIG 0.40  C 
ATOM      6  N   PHE D 581      11.492  42.548  30.370  1.00 32.89 LIG 0.61  N 
BRANCH 5 7
ATOM      7  CB  PHE D 581      10.105  40.541  30.752  1.00 28.72 LIG 0.09  C 
BRANCH 7 8
ATOM      8  CG  PHE D 581       9.685  40.264  29.359  1.00 26.87 LIG-0.06  A 
ATOM      9  CD2 PHE D 581      10.597  39.855  28.419  1.00 27.71 LIG 0.01  A 
ATOM     10  CE2 PHE D 581      10.210  39.606  27.134  1.00 28.49 LIG 0.00  A 
ATOM     11  CZ  PHE D 581       8.894  39.783  26.765  1.00 27.55 LIG 0.00  A 
ATOM     12  CE1 PHE D 581       7.979  40.178  27.698  1.00 27.10 LIG 0.00  A 
ATOM     13  CD1 PHE D 581       8.365  40.421  28.984  1.00 31.56 LIG 0.01  A 
ENDBRANCH 7 8
ENDBRANCH 5 7
ENDBRANCH 1 5
BRANCH 3 14
ATOM     14  CA  GLY D 582       9.169  42.787  34.593  1.00 56.05 LIG 0.23  C 
BRANCH 14 15
ATOM     15  C   GLY D 582       9.008  44.225  35.092  1.00 52.60 LIG 0.23  C 
ATOM     16 O    GLY D 582       9.049  44.397  36.312  1.00 74.45 LIG-0.27  OA
ATOM     17  N   GLY D 583       8.841  45.264  34.257  1.00 64.33 LIG-0.35  N 
ATOM     18 H    GLY D 583       8.693  46.054  34.563  1.00 64.33 LIG 0.16  HD
BRANCH 17 19
ATOM     19  CA  GLY D 583       8.874  45.254  32.796  1.00 71.73 LIG 0.21  C 
BRANCH 19 20
ATOM     20  C   GLY D 583      10.254  45.664  32.288  1.00 87.62 LIG 0.21  C 
ATOM     21 O    GLY D 583      10.792  45.143  31.301  1.00 60.31 LIG-0.29  OA
ENDBRANCH 19 20
ENDBRANCH 17 19
ENDBRANCH 14 15
ENDBRANCH 3 14
TORSDOF 7
