REMARK  7 active torsions:
REMARK  status: ('A' for Active; 'I' for Inactive)
REMARK    1  A    between atoms: CA_2  and  CB_5 
REMARK    2  A    between atoms: CA_2  and  C_3 
REMARK       I    between atoms: C_3  and  N_12 
REMARK    3  A    between atoms: CB_5  and  CG_6 
REMARK    4  A    between atoms: N_12  and  CA_13 
REMARK    5  A    between atoms: CA_13  and  C_14 
REMARK       I    between atoms: C_14  and  N_17 
REMARK    6  A    between atoms: N_17  and  CA_18 
REMARK    7  A    between atoms: CA_18  and  C_19 
ROOT
ATOM      1  C   PHE D 581      10.627  42.240  32.632  1.00 49.77     0.257 C 
ATOM      2  O   PHE D 581      11.761  42.227  33.093  1.00 40.61    -0.271 OA
ATOM      3  N   GLY D 582       9.537  42.436  33.371  1.00 37.98    -0.350 N 
ATOM      4  H   GLY D 582       8.737  42.404  33.056  1.00 37.98     0.163 HD
ENDROOT
BRANCH   1   5
ATOM      5  CA  PHE D 581      10.404  42.025  31.144  1.00 40.42     0.404 C 
ATOM      6  N   PHE D 581      11.568  42.455  30.374  1.00 32.89     0.615 N 
BRANCH   5   7
ATOM      7  CB  PHE D 581      10.089  40.543  30.874  1.00 28.72     0.089 C 
BRANCH   7   8
ATOM      8  CG  PHE D 581       9.787  40.257  29.452  1.00 26.87    -0.056 A 
ATOM      9  CD2 PHE D 581      10.769  39.818  28.601  1.00 27.71     0.007 A 
ATOM     10  CE2 PHE D 581      10.492  39.561  27.289  1.00 28.49     0.001 A 
ATOM     11  CZ  PHE D 581       9.217  39.760  26.804  1.00 27.55     0.000 A 
ATOM     12  CE1 PHE D 581       8.232  40.184  27.649  1.00 27.10     0.001 A 
ATOM     13  CD1 PHE D 581       8.509  40.436  28.961  1.00 31.56     0.007 A 
ENDBRANCH   7   8
ENDBRANCH   5   7
ENDBRANCH   1   5
BRANCH   3  14
ATOM     14  CA  GLY D 582       9.601  42.724  34.791  1.00 56.05     0.225 C 
BRANCH  14  15
ATOM     15  C   GLY D 582       9.765  44.158  35.302  1.00 52.60     0.235 C 
ATOM     16  O   GLY D 582       9.898  44.301  36.519  1.00 74.45    -0.272 OA
ATOM     17  N   GLY D 583       9.777  45.220  34.480  1.00 64.33    -0.352 N 
ATOM     18  H   GLY D 583       9.811  46.019  34.795  1.00 64.33     0.162 HD
BRANCH  17  19
ATOM     19  CA  GLY D 583       9.738  45.223  33.019  1.00 71.73     0.209 C 
BRANCH  19  20
ATOM     20  C   GLY D 583      11.152  45.257  32.445  1.00 87.62     0.213 C 
ATOM     21  O   GLY D 583      11.391  45.170  31.233  1.00 60.31    -0.287 OA
ENDBRANCH  19  20
ENDBRANCH  17  19
ENDBRANCH  14  15
ENDBRANCH   3  14
TORSDOF 7
